contingency/no_load/80pc/TNB_DUMA_VLN.Txt

SYMMETRICAL COMPONENT VOLTAGES BY BUS (for 3-phase buses)

Bus               Mag:   V1 (kV)    p.u.     V2 (kV)   %V2/V1    V0 (kV)    %V0/V1

ppu_duma_33kv        18.45     0.9684  1.699E-007  9.209E-007 1.239E-009 6.717E-009
ppu_duma_11kv        5.129     0.8076  4.359E-007  8.498E-006 4.839E-006 9.434E-005
rpplngi2             5.267     0.8293  4.456E-007  8.46E-006 4.962E-006 9.422E-005
pdtjlnmasjid         5.372     0.8459  4.53E-007  8.432E-006 5.055E-006 9.41E-005
bella                5.444     0.8572  4.58E-007  8.414E-006 5.118E-006 9.401E-005
pstpdgn               5.48     0.8629  4.606E-007  8.404E-006 5.149E-006 9.396E-005
pamdra               5.143     0.8098  4.368E-007  8.494E-006 4.853E-006 9.437E-005
duma4                5.189     0.8171  4.401E-007  8.481E-006 5.555E-006  0.000107
plsdra               5.294     0.8336  4.474E-007  8.451E-006 6.898E-006 0.0001303
ssu_uptwres_ir1      5.312     0.8364  4.487E-007  8.446E-006 6.919E-006 0.0001303
atria_1              5.314     0.8367  4.489E-007  8.448E-006 5.003E-006 9.414E-005
hawker               5.345     0.8417  4.513E-007  8.442E-006 5.048E-006 9.443E-005
prmte                5.252      0.827  4.446E-007  8.465E-006 6.513E-006  0.000124
prmta                5.273     0.8303  4.461E-007  8.459E-006 6.537E-006  0.000124
pmontb                5.29     0.8329  4.472E-007  8.454E-006 6.745E-006 0.0001275
duma7                5.181     0.8158  4.681E-007  9.035E-006 4.694E-006 9.06E-005
haus                 5.288     0.8327  5.085E-007  9.616E-006 1.815E-005 0.0003432
duma6                5.589       0.88  8.491E-007  1.519E-005 8.391E-005  0.001501
duma13               5.863     0.9231  1.46E-006  2.49E-005 0.0001538  0.002624
ssu_duma5_im2        5.899     0.9289  1.575E-006  2.669E-005 0.0001547  0.002623
plngi_b              5.197     0.8184  4.407E-007  8.479E-006 4.898E-006 9.425E-005
plngi_d              5.232     0.8238  4.431E-007  8.47E-006 4.929E-006 9.42E-005
pdtlitrak            5.476     0.8623  4.218E-007  7.703E-006 5.234E-006 9.557E-005
duma12               5.622     0.8852  4.13E-007  7.346E-006  5.4E-006 9.605E-005
tmngh4               5.761     0.9071  4.062E-007  7.05E-006 7.144E-006  0.000124
ssu_tmegah3_ir1      5.817     0.9159  4.033E-007  6.934E-006 7.869E-006 0.0001353
tmngh2               5.841     0.9197  4.021E-007  6.884E-006 8.189E-006 0.0001402
sprk9                5.445     0.8573  4.581E-007  8.413E-006 5.135E-006 9.431E-005
bomba                5.463     0.8602  4.594E-007  8.408E-006 5.315E-006 9.729E-005
sprk8                5.508     0.8674  4.625E-007  8.396E-006 5.783E-006  0.000105
ssu_uptwres_im2       5.18     0.8156  4.395E-007  8.484E-006 5.422E-006 0.0001047
maybank              5.249     0.8265  4.443E-007  8.465E-006 5.489E-006 0.0001046
duma8                5.262     0.8286  4.453E-007  8.461E-006 5.626E-006 0.0001069
ssu_dsarcntr_ir1     5.163      0.813  4.383E-007  8.488E-006 4.868E-006 9.429E-005
duma9                5.369     0.8454  4.528E-007  8.433E-006 5.054E-006 9.413E-005
duma1                5.469     0.8612  4.598E-007  8.407E-006 5.142E-006 9.401E-005
elite                5.506     0.8669  4.623E-007  8.398E-006 5.173E-006 9.396E-005
duma10               5.295     0.8337  4.475E-007  8.453E-006 4.984E-006 9.414E-005
balaipolis           5.296      0.834  4.477E-007  8.452E-006 4.986E-006 9.414E-005
ppu_duma_vcb1            0          0          0          0         0         0
